Version 4
SHEET 1 1208 680
WIRE 144 -96 128 -96
WIRE 128 -80 128 -96
WIRE 400 -32 368 -32
WIRE 496 -32 480 -32
WIRE 448 48 432 48
WIRE 432 64 432 48
WIRE 176 80 128 80
WIRE 256 80 240 80
WIRE 368 80 368 -32
WIRE 368 80 336 80
WIRE 400 80 368 80
WIRE 496 96 496 -32
WIRE 496 96 464 96
WIRE 528 96 496 96
WIRE 400 112 368 112
WIRE 128 128 128 80
WIRE 368 176 368 112
WIRE 368 176 352 176
WIRE 368 208 368 176
WIRE 128 224 128 208
FLAG 128 224 0
FLAG 432 48 VCC
FLAG 432 128 0
FLAG 528 96 OUT
IOPIN 528 96 Out
FLAG 128 0 0
FLAG 128 -96 VCC
FLAG 352 176 Vbias
FLAG 128 80 IN
FLAG 368 288 0
SYMBOL voltage 128 112 R0
WINDOW 123 24 124 Left 2
WINDOW 39 0 0 Left 2
SYMATTR Value2 AC 1
SYMATTR InstName V1
SYMATTR Value SINE(1.65 1.65 10)
SYMBOL res 352 64 R90
WINDOW 0 0 56 VBottom 2
WINDOW 3 32 56 VTop 2
SYMATTR InstName R1
SYMATTR Value 10k
SYMBOL Opamps\\UniversalOpamp2 432 96 R0
SYMATTR InstName U1
SYMBOL voltage 128 -96 R0
WINDOW 123 0 0 Left 2
WINDOW 39 0 0 Left 2
SYMATTR InstName V2
SYMATTR Value 5V
SYMBOL res 496 -48 R90
WINDOW 0 0 56 VBottom 2
WINDOW 3 32 56 VTop 2
SYMATTR InstName R2
SYMATTR Value 10k
SYMBOL cap 240 64 R90
WINDOW 0 0 32 VBottom 2
WINDOW 3 32 32 VTop 2
SYMATTR InstName C1
SYMATTR Value 1uF
SYMBOL voltage 368 192 R0
SYMATTR InstName V3
SYMATTR Value {Vbias}
TEXT 280 -224 Left 2 !.tran 300m
TEXT 288 -144 Left 2 !.step param Vbias list 0V 0.5V 1V 1.5V 2.5V 3V
TEXT 280 -192 Left 2 !;ac oct 20 10 10Meg
