Version 4
SHEET 1 1604 680
WIRE 208 -160 192 -160
WIRE 320 -160 304 -160
WIRE 192 -144 192 -160
WIRE 304 -144 304 -160
WIRE 1056 -48 1040 -48
WIRE 1264 -32 1136 -32
WIRE 1056 -16 1056 -48
WIRE 1216 16 1200 16
WIRE 1200 32 1200 16
WIRE 1136 48 1136 -32
WIRE 1168 48 1136 48
WIRE 1264 64 1264 -32
WIRE 1264 64 1232 64
WIRE 1296 64 1264 64
WIRE 1408 64 1376 64
WIRE 1488 64 1408 64
WIRE 80 80 16 80
WIRE 208 80 160 80
WIRE 256 80 208 80
WIRE 384 80 336 80
WIRE 432 80 384 80
WIRE 560 80 512 80
WIRE 608 80 560 80
WIRE 736 80 688 80
WIRE 784 80 736 80
WIRE 896 80 848 80
WIRE 928 80 896 80
WIRE 1056 80 1056 48
WIRE 1056 80 1008 80
WIRE 1168 80 1056 80
WIRE 1408 96 1408 64
WIRE 16 112 16 80
WIRE 208 112 208 80
WIRE 384 112 384 80
WIRE 560 112 560 80
WIRE 736 112 736 80
WIRE 1056 112 1056 80
WIRE 1200 112 1200 96
WIRE 896 128 896 80
WIRE 16 208 16 192
WIRE 208 208 208 176
WIRE 384 208 384 176
WIRE 560 208 560 176
WIRE 736 208 736 176
WIRE 1056 208 1056 176
WIRE 1408 208 1408 176
WIRE 1072 256 1040 256
WIRE 1168 256 1136 256
WIRE 1248 272 1232 272
WIRE 1232 288 1232 272
WIRE 1120 320 1104 320
WIRE 1104 336 1104 320
WIRE 1168 352 1168 256
WIRE 1168 352 1136 352
WIRE 896 368 896 208
WIRE 1040 368 1040 256
WIRE 1040 368 896 368
WIRE 1072 368 1040 368
WIRE 1232 384 1232 368
WIRE 1232 384 1136 384
WIRE 1232 400 1232 384
WIRE 1104 416 1104 400
WIRE 1232 496 1232 480
FLAG 16 208 0
FLAG 16 80 IN
FLAG 208 208 0
FLAG 1488 64 OUT
IOPIN 1488 64 Out
FLAG 384 208 0
FLAG 192 -64 0
FLAG 192 -160 VCC
FLAG 1200 16 VCC
FLAG 1200 112 0
FLAG 1056 -48 VREF
FLAG 304 -64 0
FLAG 304 -160 VREF
FLAG 1104 320 VCC
FLAG 1104 416 0
FLAG 1232 496 0
FLAG 1232 272 VREF
FLAG 1056 208 0
FLAG 560 208 0
FLAG 736 208 0
FLAG 1408 208 0
SYMBOL voltage 16 96 R0
WINDOW 3 -22 165 Left 2
WINDOW 123 34 89 Left 2
WINDOW 39 0 0 Left 2
SYMATTR Value PULSE(0 3.3 0 1n 1n 10m 20m)
SYMATTR Value2 AC 1
SYMATTR InstName V1
SYMBOL cap 192 112 R0
SYMATTR InstName C1
SYMATTR Value 0.1uF
SYMBOL res 176 64 R90
WINDOW 0 0 56 VBottom 2
WINDOW 3 32 56 VTop 2
SYMATTR InstName R1
SYMATTR Value {Rc}
SYMBOL cap 368 112 R0
SYMATTR InstName C2
SYMATTR Value 0.1uF
SYMBOL res 352 64 R90
WINDOW 0 0 56 VBottom 2
WINDOW 3 32 56 VTop 2
SYMATTR InstName R2
SYMATTR Value {Rc}
SYMBOL voltage 192 -160 R0
SYMATTR InstName V2
SYMATTR Value 5V
SYMBOL res 880 112 R0
SYMATTR InstName R5
SYMATTR Value 330k
SYMBOL cap 848 64 R90
WINDOW 0 0 32 VBottom 2
WINDOW 3 32 32 VTop 2
SYMATTR InstName C3
SYMATTR Value 10uF
SYMBOL Opamps\\UniversalOpamp2 1200 64 R0
SYMATTR InstName U2
SYMBOL voltage 304 -160 R0
SYMATTR InstName V4
SYMATTR Value 3.3V
SYMBOL Opamps\\UniversalOpamp2 1104 368 M0
SYMATTR InstName U3
SYMBOL res 1216 272 R0
SYMATTR InstName R6
SYMATTR Value 50k
SYMBOL res 1216 496 M180
WINDOW 0 36 76 Left 2
WINDOW 3 36 40 Left 2
SYMATTR InstName R7
SYMATTR Value 50k
SYMBOL res 1392 48 R90
WINDOW 0 0 56 VBottom 2
WINDOW 3 32 56 VTop 2
SYMATTR InstName R8
SYMATTR Value 47
SYMBOL diode 1072 176 R180
WINDOW 0 24 64 Left 2
WINDOW 3 24 0 Left 2
SYMATTR InstName D2
SYMBOL cap 544 112 R0
SYMATTR InstName C4
SYMATTR Value 0.1uF
SYMBOL cap 720 112 R0
SYMATTR InstName C5
SYMATTR Value 0.1uF
SYMBOL res 704 64 R90
WINDOW 0 0 56 VBottom 2
WINDOW 3 32 56 VTop 2
SYMATTR InstName R4
SYMATTR Value {Rc}
SYMBOL res 528 64 R90
WINDOW 0 0 56 VBottom 2
WINDOW 3 32 56 VTop 2
SYMATTR InstName R3
SYMATTR Value {Rc}
SYMBOL res 1024 64 R90
WINDOW 0 0 56 VBottom 2
WINDOW 3 32 56 VTop 2
SYMATTR InstName R9
SYMATTR Value 33
SYMBOL cap 1136 240 R90
WINDOW 0 0 32 VBottom 2
WINDOW 3 32 32 VTop 2
SYMATTR InstName C6
SYMATTR Value 1uF
SYMBOL res 1392 80 R0
SYMATTR InstName R10
SYMATTR Value 10k
SYMBOL diode 1072 48 R180
WINDOW 0 24 64 Left 2
WINDOW 3 24 0 Left 2
SYMATTR InstName D1
TEXT 416 -184 Left 2 !.tran 0 1s 940ms
TEXT 416 -160 Left 2 !;ac oct 20 10.m 100k
TEXT 424 -80 Left 2 !.step param Rc list 47 100 200
TEXT 368 32 Left 2 ;LPF
TEXT 1008 -96 Left 2 ;Limitter
TEXT 848 360 Left 2 ;Bias
TEXT 1168 -64 Left 2 ;Buffer
